Circuit: * C:\Users\Serlonic\Documents\GitHub\SchematicKPI\Lab\Lab4\lab4.asc

Direct Newton iteration for .op point succeeded.

Date: Fri May 26 11:10:41 2017
Total elapsed time: 2.102 seconds.

tnom = 27
temp = 27
method = modified trap
totiter = 103833
traniter = 103827
tranpoints = 41111
accept = 25992
rejected = 15119
matrix size = 9
fillins = 0
solver = Normal
Matrix Compiler1: 430 bytes object code size  0.2/0.1/[0.0]
Matrix Compiler2: 655 bytes object code size  0.1/0.1/[0.1]


