Circuit: * C:\Users\Serlonic\Documents\GitHub\SchematicKPI\Lab\Lab3\firth.asc

Instance "m:u1:2": Length shorter than recommended for a level 3 MOSFET.
Instance "m:u1:1": Length shorter than recommended for a level 3 MOSFET.
.OP point found by inspection.

Date: Fri Apr 28 10:31:04 2017
Total elapsed time: 0.110 seconds.

tnom = 27
temp = 27
method = trap
totiter = 62
traniter = 0
tranpoints = 0
accept = 0
rejected = 0
matrix size = 8
fillins = 0
solver = Normal
Matrix Compiler1: 540 bytes object code size
Matrix Compiler2: 716 bytes object code size

