Circuit: * C:\Users\Serlonic\Documents\GitHub\SchematicKPI\Lab\Lab3\second.asc

WARNING: Node N003 is floating.

WARNING: Less than two connections to node N003.  This node is used by C2.
Direct Newton iteration for .op point succeeded.

Date: Sat May 13 17:41:07 2017
Total elapsed time: 0.120 seconds.

tnom = 27
temp = 27
method = modified trap
totiter = 3176
traniter = 3169
tranpoints = 1066
accept = 1060
rejected = 6
matrix size = 10
fillins = 1
solver = Normal
Matrix Compiler1: 498 bytes object code size  0.1/0.1/[0.0]
Matrix Compiler2: 748 bytes object code size  0.1/0.1/[0.1]


